data_set
_cell_length_a                         0.4107701929E+01
_cell_length_b                         0.4107701929E+01
_cell_length_c                         0.2838974951E+02
_cell_angle_alpha                      0.9000000000E+02
_cell_angle_beta                       0.9000000000E+02
_cell_angle_gamma                      0.9000000000E+02
_cell_volume                           0.4790263510E+03
loop_
  _atom_site_label                   
  _atom_site_fract_x                 
  _atom_site_fract_y                 
  _atom_site_fract_z                 
  Sn    0.5000000000E+00    0.0000000000E+00    0.1643720000E+00
  Sn    0.0000000000E+00    0.5000000000E+00    0.2612240000E+00
  Sn    0.5000000000E+00    0.0000000000E+00    0.3558400000E+00
  Sn    0.0000000000E+00    0.5000000000E+00    0.4526920000E+00
  Sn    0.5000000000E+00    0.0000000000E+00    0.5473080000E+00
  Sn    0.0000000000E+00    0.5000000000E+00    0.6441600000E+00
  Sn    0.5000000000E+00    0.0000000000E+00    0.7387760000E+00
  Sn    0.0000000000E+00    0.5000000000E+00    0.8356280000E+00
  Se    0.0000000000E+00    0.5000000000E+00    0.1654900000E+00
  Se    0.5000000000E+00    0.0000000000E+00    0.2601060000E+00
  Se    0.0000000000E+00    0.5000000000E+00    0.3569580000E+00
  Se    0.5000000000E+00    0.0000000000E+00    0.4515740000E+00
  Se    0.0000000000E+00    0.5000000000E+00    0.5484260000E+00
  Se    0.5000000000E+00    0.0000000000E+00    0.6430420000E+00
  Se    0.0000000000E+00    0.5000000000E+00    0.7398940000E+00
  Se    0.5000000000E+00    0.0000000000E+00    0.8345100000E+00
_chemical_formula_analytical              'Sn8Se8'                                                                                            
_symmetry_Int_Tables_number             129
_symmetry_space_group_name_H-M        'P 4/n m m'

loop_
  _symmetry_equiv_pos_as_xyz           
  +x,+y,+z
  1/2-x,1/2-y,-z
  1/2-x,1/2+y,-z
  +x,-y,+z
  -x,-y,+z
  1/2+x,1/2+y,-z
  1/2+x,1/2-y,-z
  -x,+y,+z
  1/2+y,1/2+x,+z
  -y,-x,-z
  +y,-x,-z
  1/2-y,1/2+x,+z
  1/2-y,1/2-x,+z
  +y,+x,-z
  -y,+x,-z
  1/2+y,1/2-x,+z
