data_set
_cell_length_a                         0.4107701929E+01
_cell_length_b                         0.4107701929E+01
_cell_length_c                         0.2897403457E+02
_cell_angle_alpha                      0.9000000000E+02
_cell_angle_beta                       0.9000000000E+02
_cell_angle_gamma                      0.9000000000E+02
_cell_volume                           0.4888851186E+03
loop_
  _atom_site_label                   
  _atom_site_fract_x                 
  _atom_site_fract_y                 
  _atom_site_fract_z                 
  Sn    0.5000000000E+00   -0.2434452639E-10    0.1610568986E+00
  Sn   -0.2434452639E-10    0.5000000000E+00    0.2559566892E+00
  Sn    0.5000000000E+00   -0.2434452639E-10    0.3486637877E+00
  Sn   -0.2434452639E-10    0.5000000000E+00    0.4435635783E+00
  Sn    0.5000000000E+00   -0.2434452639E-10    0.5362706768E+00
  Sn   -0.2434452639E-10    0.5000000000E+00    0.6311704674E+00
  Se   -0.2434452639E-10    0.5000000000E+00    0.1621532322E+00
  Se    0.5000000000E+00   -0.2434452639E-10    0.2551245016E+00
  Se   -0.2434452639E-10    0.5000000000E+00    0.3501226418E+00
  Se    0.5000000000E+00   -0.2434452639E-10    0.4429258420E+00
  Se   -0.2434452639E-10    0.5000000000E+00    0.5379239822E+00
  Se    0.5000000000E+00   -0.2434452639E-10    0.6307271825E+00
  Se    0.5000000000E+00   -0.2434452639E-10    0.8966967883E+00
  Se   -0.2434452639E-10    0.5000000000E+00    0.1000000000E+01
  Zn    0.5000000000E+00    0.5000000000E+00    0.9483483941E+00
  Zn   -0.2434452639E-10   -0.2434452639E-10    0.9483483941E+00
_chemical_formula_analytical              'Sn6Se8Zn2'                                                                                         
_symmetry_Int_Tables_number              99
_symmetry_space_group_name_H-M        'P 4 m m'

loop_
  _symmetry_equiv_pos_as_xyz           
  +x,+y,+z
  +x,-y,+z
  -x,-y,+z
  -x,+y,+z
  1/2+y,1/2+x,+z
  1/2-y,1/2+x,+z
  1/2-y,1/2-x,+z
  1/2+y,1/2-x,+z
