data_set
_cell_length_a                         0.4107701929E+01
_cell_length_b                         0.4107701929E+01
_cell_length_c                         0.2352800559E+02
_cell_angle_alpha                      0.9000000000E+02
_cell_angle_beta                       0.9000000000E+02
_cell_angle_gamma                      0.9000000000E+02
_cell_volume                           0.3969931000E+03
loop_
  _atom_site_label                   
  _atom_site_fract_x                 
  _atom_site_fract_y                 
  _atom_site_fract_z                 
  Sn    0.5000000000E+00    0.0000000000E+00    0.1983370000E+00
  Sn    0.0000000000E+00    0.5000000000E+00    0.3152030000E+00
  Sn    0.5000000000E+00    0.0000000000E+00    0.4293690000E+00
  Sn    0.0000000000E+00    0.5000000000E+00    0.5462350000E+00
  Se    0.0000000000E+00    0.5000000000E+00    0.1996870000E+00
  Se    0.5000000000E+00    0.0000000000E+00    0.3138530000E+00
  Se    0.0000000000E+00    0.5000000000E+00    0.4307190000E+00
  Se    0.5000000000E+00    0.0000000000E+00    0.5448850000E+00
  Se    0.5000000000E+00    0.0000000000E+00    0.6745800000E+00
  Se    0.0000000000E+00    0.5000000000E+00    0.8016630000E+00
  Zn    0.5000000000E+00    0.5000000000E+00    0.7381220000E+00
  Zn    0.0000000000E+00    0.0000000000E+00    0.7381220000E+00
_chemical_formula_analytical              'Sn4Se6Zn2'                                                                                         
_symmetry_Int_Tables_number              99
_symmetry_space_group_name_H-M        'P 4 m m'

loop_
  _symmetry_equiv_pos_as_xyz           
  +x,+y,+z
  +x,-y,+z
  -x,-y,+z
  -x,+y,+z
  1/2+y,1/2+x,+z
  1/2-y,1/2+x,+z
  1/2-y,1/2-x,+z
  1/2+y,1/2-x,+z
