data_set
_cell_length_a                         0.4107701929E+01
_cell_length_b                         0.4107701929E+01
_cell_length_c                         0.2632617033E+02
_cell_angle_alpha                      0.9000000000E+02
_cell_angle_beta                       0.9000000000E+02
_cell_angle_gamma                      0.9000000000E+02
_cell_volume                           0.4442071357E+03
loop_
  _atom_site_label                   
  _atom_site_fract_x                 
  _atom_site_fract_y                 
  _atom_site_fract_z                 
  Sn    0.5000000000E+00   -0.2434452639E-10    0.1772558670E+00
  Sn   -0.2434452639E-10    0.5000000000E+00    0.2817005994E+00
  Sn    0.5000000000E+00   -0.2434452639E-10    0.3837321004E+00
  Sn   -0.2434452639E-10    0.5000000000E+00    0.4881768328E+00
  Sn    0.5000000000E+00   -0.2434452639E-10    0.5902083338E+00
  Se   -0.2434452639E-10    0.5000000000E+00    0.1784624690E+00
  Se    0.5000000000E+00   -0.2434452639E-10    0.2804939837E+00
  Se   -0.2434452639E-10    0.5000000000E+00    0.3864064680E+00
  Se    0.5000000000E+00   -0.2434452639E-10    0.4888270274E+00
  Se   -0.2434452639E-10    0.5000000000E+00    0.5936699923E+00
  Se    0.5000000000E+00   -0.2434452639E-10    0.8859912945E+00
  Se   -0.2434452639E-10    0.5000000000E+00    0.1000000000E+01
  Zn    0.5000000000E+00    0.5000000000E+00    0.9429956472E+00
  Zn   -0.2434452639E-10   -0.2434452639E-10    0.9429956472E+00
_chemical_formula_analytical              'Sn5Se7Zn2'                                                                                         
_symmetry_Int_Tables_number              99
_symmetry_space_group_name_H-M        'P 4 m m'

loop_
  _symmetry_equiv_pos_as_xyz           
  +x,+y,+z
  +x,-y,+z
  -x,-y,+z
  -x,+y,+z
  1/2+y,1/2+x,+z
  1/2-y,1/2+x,+z
  1/2-y,1/2-x,+z
  1/2+y,1/2-x,+z
