data_set
_cell_length_a                         0.4107701929E+01
_cell_length_b                         0.4107701929E+01
_cell_length_c                         0.3382547741E+02
_cell_angle_alpha                      0.9000000000E+02
_cell_angle_beta                       0.9000000000E+02
_cell_angle_gamma                      0.9000000000E+02
_cell_volume                           0.5707445574E+03
loop_
  _atom_site_label                   
  _atom_site_fract_x                 
  _atom_site_fract_y                 
  _atom_site_fract_z                 
  Sn    0.5000000000E+00    0.2435357162E-31    0.1379570000E+00
  Sn    0.5079737604E-31    0.5000000000E+00    0.2192460000E+00
  Sn    0.5000000000E+00    0.2793599840E-31    0.2986560000E+00
  Sn    0.5075996242E-32    0.5000000000E+00    0.3799450000E+00
  Sn    0.5000000000E+00    0.1272326344E-30    0.4593560000E+00
  Sn    0.8261413288E-31    0.5000000000E+00    0.5406440000E+00
  Sn    0.5000000000E+00    0.4430725574E-31    0.6200550000E+00
  Sn   -0.2158050523E-31    0.5000000000E+00    0.7013440000E+00
  Sn    0.5000000000E+00    0.1406735357E-30    0.7807540000E+00
  Sn    0.1608412923E-30    0.5000000000E+00    0.8620430000E+00
  Se    0.2580096135E-31    0.5000000000E+00    0.1388960000E+00
  Se    0.5000000000E+00   -0.3091844146E-32    0.2183070000E+00
  Se    0.2962800803E-31    0.5000000000E+00    0.2995960000E+00
  Se    0.5000000000E+00    0.2514248592E-31    0.3790060000E+00
  Se    0.5158629034E-31    0.5000000000E+00    0.4602950000E+00
  Se    0.5000000000E+00    0.5965286375E-31    0.5397050000E+00
  Se    0.1784282336E-30    0.5000000000E+00    0.6209940000E+00
  Se    0.5000000000E+00    0.1309149526E-30    0.7004040000E+00
  Se    0.1636348048E-30    0.5000000000E+00    0.7816930000E+00
  Se    0.5000000000E+00    0.1378800232E-30    0.8611040000E+00
_chemical_formula_analytical              'Sn10Se10'                                                                                          
_symmetry_Int_Tables_number             129
_symmetry_space_group_name_H-M        'P 4/n m m'

loop_
  _symmetry_equiv_pos_as_xyz           
  +x,+y,+z
  1/2-x,1/2-y,-z
  1/2-x,1/2+y,-z
  +x,-y,+z
  -x,-y,+z
  1/2+x,1/2+y,-z
  1/2+x,1/2-y,-z
  -x,+y,+z
  1/2+y,1/2+x,+z
  -y,-x,-z
  +y,-x,-z
  1/2-y,1/2+x,+z
  1/2-y,1/2-x,+z
  +y,+x,-z
  -y,+x,-z
  1/2+y,1/2-x,+z
