data_set
_cell_length_a                         0.4107701929E+01
_cell_length_b                         0.4107701929E+01
_cell_length_c                         0.1480042874E+02
_cell_angle_alpha                      0.9000000000E+02
_cell_angle_beta                       0.9000000000E+02
_cell_angle_gamma                      0.9000000000E+02
_cell_volume                           0.2497308182E+03
loop_
  _atom_site_label                   
  _atom_site_fract_x                 
  _atom_site_fract_y                 
  _atom_site_fract_z                 
  Sn    0.5000000000E+00    0.0000000000E+00    0.3152930000E+00
  Sn    0.0000000000E+00    0.5000000000E+00    0.5010730000E+00
  Sn    0.5000000000E+00    0.0000000000E+00    0.6825610000E+00
  Se    0.0000000000E+00    0.5000000000E+00    0.3174390000E+00
  Se    0.5000000000E+00    0.0000000000E+00    0.4989270000E+00
  Se    0.0000000000E+00    0.5000000000E+00    0.6847070000E+00
_chemical_formula_analytical              'Sn3Se3'                                                                                            
_symmetry_Int_Tables_number              99
_symmetry_space_group_name_H-M        'P 4 m m'

loop_
  _symmetry_equiv_pos_as_xyz           
  +x,+y,+z
  +x,-y,+z
  -x,-y,+z
  -x,+y,+z
  1/2+y,1/2+x,+z
  1/2-y,1/2+x,+z
  1/2-y,1/2-x,+z
  1/2+y,1/2-x,+z
