data_set
_cell_length_a                         0.4107701929E+01
_cell_length_b                         0.4107701929E+01
_cell_length_c                         0.3446896340E+02
_cell_angle_alpha                      0.9000000000E+02
_cell_angle_beta                       0.9000000000E+02
_cell_angle_gamma                      0.9000000000E+02
_cell_volume                           0.5816022349E+03
loop_
  _atom_site_label                   
  _atom_site_fract_x                 
  _atom_site_fract_y                 
  _atom_site_fract_z                 
  Sn    0.5000000000E+00    0.2545108640E-31    0.1353820000E+00
  Sn   -0.1255317455E-31    0.5000000000E+00    0.2151530000E+00
  Sn    0.5000000000E+00   -0.2560302604E-31    0.2930810000E+00
  Sn   -0.4157460959E-31    0.5000000000E+00    0.3728520000E+00
  Sn    0.5000000000E+00   -0.5462446108E-31    0.4507800000E+00
  Sn   -0.1146613994E-30    0.5000000000E+00    0.5305510000E+00
  Sn    0.5000000000E+00    0.2020016882E-31    0.6084790000E+00
  Sn   -0.7433185836E-31    0.5000000000E+00    0.6882510000E+00
  Se   -0.5446815898E-32    0.5000000000E+00    0.1363030000E+00
  Se    0.5000000000E+00   -0.1849666739E-31    0.2142310000E+00
  Se   -0.4693066239E-31    0.5000000000E+00    0.2940030000E+00
  Se    0.5000000000E+00   -0.1067670730E-31    0.3719310000E+00
  Se    0.2789396752E-31    0.5000000000E+00    0.4517020000E+00
  Se    0.5000000000E+00    0.9605664234E-32    0.5296300000E+00
  Se   -0.5043127410E-31    0.5000000000E+00    0.6094010000E+00
  Se    0.5000000000E+00   -0.1127849322E-30    0.6873290000E+00
  Se    0.5000000000E+00   -0.9369166948E-31    0.7778730000E+00
  Se   -0.1052611239E-30    0.5000000000E+00    0.8646180000E+00
  Zn    0.5000000000E+00    0.5000000000E+00    0.8212460000E+00
  Zn   -0.6742013454E-31   -0.6742013454E-31    0.8212460000E+00
_chemical_formula_analytical              'Sn8Se10Zn2'                                                                                        
_symmetry_Int_Tables_number              99
_symmetry_space_group_name_H-M        'P 4 m m'

loop_
  _symmetry_equiv_pos_as_xyz           
  +x,+y,+z
  +x,-y,+z
  -x,-y,+z
  -x,+y,+z
  1/2+y,1/2+x,+z
  1/2-y,1/2+x,+z
  1/2-y,1/2-x,+z
  1/2+y,1/2-x,+z
