data_set
_cell_length_a                         0.4107701929E+01
_cell_length_b                         0.4107701929E+01
_cell_length_c                         0.3110761446E+02
_cell_angle_alpha                      0.9000000000E+02
_cell_angle_beta                       0.9000000000E+02
_cell_angle_gamma                      0.9000000000E+02
_cell_volume                           0.5248854711E+03
loop_
  _atom_site_label                   
  _atom_site_fract_x                 
  _atom_site_fract_y                 
  _atom_site_fract_z                 
  Sn    0.5000000000E+00    0.0000000000E+00    0.1500100000E+00
  Sn    0.0000000000E+00    0.5000000000E+00    0.2384010000E+00
  Sn    0.5000000000E+00    0.0000000000E+00    0.3247500000E+00
  Sn    0.0000000000E+00    0.5000000000E+00    0.4131410000E+00
  Sn    0.5000000000E+00    0.0000000000E+00    0.4994890000E+00
  Sn    0.0000000000E+00    0.5000000000E+00    0.5878800000E+00
  Sn    0.5000000000E+00    0.0000000000E+00    0.6742290000E+00
  Sn    0.0000000000E+00    0.5000000000E+00    0.7626200000E+00
  Sn    0.5000000000E+00    0.0000000000E+00    0.8489680000E+00
  Se    0.0000000000E+00    0.5000000000E+00    0.1510320000E+00
  Se    0.5000000000E+00    0.0000000000E+00    0.2373800000E+00
  Se    0.0000000000E+00    0.5000000000E+00    0.3257710000E+00
  Se    0.5000000000E+00    0.0000000000E+00    0.4121200000E+00
  Se    0.0000000000E+00    0.5000000000E+00    0.5005110000E+00
  Se    0.5000000000E+00    0.0000000000E+00    0.5868590000E+00
  Se    0.0000000000E+00    0.5000000000E+00    0.6752500000E+00
  Se    0.5000000000E+00    0.0000000000E+00    0.7615990000E+00
  Se    0.0000000000E+00    0.5000000000E+00    0.8499900000E+00
_chemical_formula_analytical              'Sn9Se9'                                                                                            
_symmetry_Int_Tables_number              99
_symmetry_space_group_name_H-M        'P 4 m m'

loop_
  _symmetry_equiv_pos_as_xyz           
  +x,+y,+z
  +x,-y,+z
  -x,-y,+z
  -x,+y,+z
  1/2+y,1/2+x,+z
  1/2-y,1/2+x,+z
  1/2-y,1/2-x,+z
  1/2+y,1/2-x,+z
