data_set
_cell_length_a                         0.4107701929E+01
_cell_length_b                         0.4107701929E+01
_cell_length_c                         0.2567188555E+02
_cell_angle_alpha                      0.9000000000E+02
_cell_angle_beta                       0.9000000000E+02
_cell_angle_gamma                      0.9000000000E+02
_cell_volume                           0.4331672478E+03
loop_
  _atom_site_label                   
  _atom_site_fract_x                 
  _atom_site_fract_y                 
  _atom_site_fract_z                 
  Sn    0.5000000000E+00    0.0000000000E+00    0.1817730000E+00
  Sn    0.0000000000E+00    0.5000000000E+00    0.2888800000E+00
  Sn    0.5000000000E+00    0.0000000000E+00    0.3935120000E+00
  Sn    0.0000000000E+00    0.5000000000E+00    0.5006190000E+00
  Sn    0.5000000000E+00    0.0000000000E+00    0.6052510000E+00
  Sn    0.0000000000E+00    0.5000000000E+00    0.7123570000E+00
  Sn    0.5000000000E+00    0.0000000000E+00    0.8169890000E+00
  Se    0.0000000000E+00    0.5000000000E+00    0.1830110000E+00
  Se    0.5000000000E+00    0.0000000000E+00    0.2876430000E+00
  Se    0.0000000000E+00    0.5000000000E+00    0.3947490000E+00
  Se    0.5000000000E+00    0.0000000000E+00    0.4993810000E+00
  Se    0.0000000000E+00    0.5000000000E+00    0.6064880000E+00
  Se    0.5000000000E+00    0.0000000000E+00    0.7111200000E+00
  Se    0.0000000000E+00    0.5000000000E+00    0.8182270000E+00
_chemical_formula_analytical              'Sn7Se7'                                                                                            
_symmetry_Int_Tables_number              99
_symmetry_space_group_name_H-M        'P 4 m m'

loop_
  _symmetry_equiv_pos_as_xyz           
  +x,+y,+z
  +x,-y,+z
  -x,-y,+z
  -x,+y,+z
  1/2+y,1/2+x,+z
  1/2-y,1/2+x,+z
  1/2-y,1/2-x,+z
  1/2+y,1/2-x,+z
